* ----------------------------------------------------------------------------------------------------------------------------------------------
* Model Card for bsim4.81 n-type devices
*
* Simulator: UCB SPICE3 
* Model:     BSIM4.81 Modeling Package   
* Date:      04.04.2017 
* Origin:    ICCAP_ROOT/..../bsim4/circuits/current/version_481/spice3/dc_nmos.cir
* ----------------------------------------------------------------------------------------------------------------------------------------------
* The width (drain area, ..) of a single finger of the multifinger MOSFET will be calculated
* inside the model using the instance parameter 'NF'.
* --- call the transistor instance ------------------------------------------------------------------------------------------------------------
*--- BSIM4 model card --------------------------------------------------------------------------------------------------------------------------
.MODEL BSIM4_Extract NMOS 
+ LEVEL = 14 
+ VERSION = 4.81 
+ BINUNIT = 2 
+ PARAMCHK = 1 
+ MOBMOD = 1 
+ MTRLMOD = 0 
+ MTRLCOMPATMOD = 0 
+ RDSMOD = 0 
+ IGCMOD = 0 
+ IGBMOD = 0 
+ CVCHARGEMOD = 0 
+ CAPMOD = 2 
+ RGATEMOD = 0 
+ RBODYMOD = 0 
+ TRNQSMOD = 0 
+ ACNQSMOD = 0 
+ FNOIMOD = 1 
+ TNOIMOD = 0 
+ DIOMOD = 1 
+ TEMPMOD = 0 
+ PERMOD = 1 
+ GEOMOD = 0 
+ WPEMOD = 0 
+ GIDLMOD = 0 
+ EPSROX = 3.9 
+ TOXE = 3E-09 
+ EOT = 1.5E-09 
+ TOXP = 3E-09 
+ TOXM = 3E-09 
+ DTOX = 0 
+ XJ = 1.5E-07 
+ NDEP = 3.4564E+17 
+ NGATE = 0 
+ NSD = 1E+20 
+ XT = 1.55E-07 
+ RSH = 0 
+ RSHG = 0.1 
+ VTH0 = -0.098632 
+ VFB = -1 
+ VDDEOT = 1.5 
+ LEFFEOT = 1 
+ WEFFEOT = 10 
+ TEMPEOT = 300.15 
+ PHIN = 0 
+ EASUB = 4.05 
+ EPSRSUB = 11.7 
+ EPSRGATE = 11.7 
+ NI0SUB = 14500000000 
+ BG0SUB = 1.16 
+ TBGASUB = 0.000702 
+ TBGBSUB = 1108 
+ ADOS = 1 
+ BDOS = 1 
+ K1 = -0.5292 
+ K2 = -0.49317 
+ K3 = 2 
+ K3B = 0 
+ W0 = 2.5E-06 
+ LPE0 = 1.74E-07 
+ LPEB = 0 
+ VBM = -0.02 
+ DVT0 = 2.2 
+ DVT1 = 0.53 
+ DVT2 = -0.032 
+ DVTP0 = 0 
+ DVTP1 = 0.001 
+ DVTP2 = 0 
+ DVTP3 = 0 
+ DVTP4 = 0 
+ DVTP5 = 0 
+ DVT0W = 0 
+ DVT1W = 5300000 
+ DVT2W = -0.032 
+ U0 = 0.0013702 
+ UA = 1.975E-10 
+ UB = 1.1799E-19 
+ UC = 0.098031 
+ UD = -6.4127E+17 
+ UCS = 1.67 
+ UP = 0 
+ LP = 1E-08 
+ EU = 1.67 
+ VSAT = 80000 
+ A0 = 1 
+ AGS = 0 
+ B0 = 0 
+ B1 = 0 
+ KETA = -0.047 
+ A1 = 0 
+ A2 = 1 
+ WINT = 0 
+ LINT = 0 
+ DWG = 0 
+ DWB = 0 
+ VOFF = -0.5 
+ VOFFL = 0 
+ MINV = 0 
+ NFACTOR = 9.514 
+ ETA0 = 0.08 
+ ETAB = -0.07 
+ DSUB = 0.56 
+ CIT = 0 
+ CDSC = 0.00024 
+ CDSCB = 0 
+ CDSCD = 0 
+ PCLM = 1.3 
+ PDIBLC1 = 0.39 
+ PDIBLC2 = 0.0086 
+ PDIBLCB = 0 
+ DROUT = 0.56 
+ PSCBE1 = 424000000 
+ PSCBE2 = 1E-05 
+ PVAG = 0 
+ DELTA = 0.01 
+ FPROUT = 0 
+ PDITS = 0.001 
+ PDITSL = 0 
+ PDITSD = 0 
+ LAMBDA = 0 
+ VTL = 205000 
+ LC = 0 
+ XN = 3 
+ PHIG = 4.05 
+ RDSW = 200 
+ RDSWMIN = 0 
+ RDW = 100 
+ RDWMIN = 0 
+ RSW = 100 
+ RSWMIN = 0 
+ PRWG = 1 
+ PRWB = 0 
+ WR = 1 
+ ALPHA0 = 1E-05 
+ ALPHA1 = 0 
+ BETA0 = 15 
+ AGIDL = 0 
+ BGIDL = 2300000000 
+ CGIDL = 0.5 
+ EGIDL = 0.8 
+ RGIDL = 1 
+ KGIDL = 0 
+ FGIDL = 1 
+ AGISL = 0 
+ BGISL = 2300000000 
+ CGISL = 0.5 
+ EGISL = 0.8 
+ RGISL = 1 
+ KGISL = 0 
+ FGISL = 1 
+ AIGBACC = 0.0136 
+ BIGBACC = 0.00171 
+ CIGBACC = 0.075 
+ NIGBACC = 1 
+ AIGBINV = 0.0111 
+ BIGBINV = 0.000949 
+ CIGBINV = 0.006 
+ EIGBINV = 1.1 
+ NIGBINV = 3 
+ AIGC = 0.0136 
+ BIGC = 0.00171 
+ CIGC = 0.075 
+ AIGS = 0.0136 
+ BIGS = 0.00171 
+ CIGS = 0.075 
+ DLCIG = 0 
+ AIGD = 0.0136 
+ BIGD = 0.00171 
+ CIGD = 0.075 
+ DLCIGD = 0 
+ AIGSD = 0.0136 
+ BIGSD = 0.00171 
+ CIGSD = 0.075 
+ NIGC = 1 
+ POXEDGE = 1 
+ PIGCD = 1 
+ NTOX = 1 
+ TOXREF = 3E-09 
+ VFBSDOFF = 0 
+ XPART = 0 
+ CGSO = 0 
+ CGDO = 0 
+ CGBO = 0 
+ CGSL = 0 
+ CGDL = 0 
+ CKAPPAS = 0.6 
+ CKAPPAD = 0.6 
+ CF = 0 
+ CLC = 1E-07 
+ CLE = 0.6 
+ DLC = 0 
+ DWC = 0 
+ VFBCV = -1 
+ NOFF = 1 
+ VOFFCV = 0 
+ VOFFCVL = 0 
+ MINVCV = 0 
+ ACDE = 1 
+ MOIN = 15 
+ XRCRG1 = 12 
+ XRCRG2 = 1 
+ GBMIN = 1E-12 
+ RBPB = 50 
+ RBPD = 50 
+ RBPS = 50 
+ RBDB = 50 
+ RBSB = 50 
+ RBPS0 = 50 
+ RBPSL = 0 
+ RBPSW = 0 
+ RBPSNF = 0 
+ RBPD0 = 50 
+ RBPDL = 0 
+ RBPDW = 0 
+ RBPDNF = 0 
+ RBPBX0 = 100 
+ RBPBXL = 0 
+ RBPBXW = 0 
+ RBPBXNF = 0 
+ RBPBY0 = 100 
+ RBPBYL = 0 
+ RBPBYW = 0 
+ RBPBYNF = 0 
+ RBSBX0 = 100 
+ RBSBY0 = 100 
+ RBDBX0 = 100 
+ RBDBY0 = 100 
+ RBSDBXL = 0 
+ RBSDBXW = 0 
+ RBSDBXNF = 0 
+ RBSDBYL = 0 
+ RBSDBYW = 0 
+ RBSDBYNF = 0 
+ NOIA = 6.25E+41 
+ NOIB = 3.125E+26 
+ NOIC = 8.75 
+ EM = 41000000 
+ AF = 1 
+ EF = 1 
+ KF = 0 
+ LINTNOI = 0 
+ NTNOI = 1 
+ TNOIA = 1.5 
+ TNOIB = 3.5 
+ TNOIC = 0 
+ RNOIA = 0.577 
+ RNOIB = 0.5164 
+ RNOIC = 0.395 
+ DMCG = 0 
+ DMCI = 0 
+ DMDG = 0 
+ DMCGT = 0 
+ DWJ = 0 
+ XGW = 0 
+ XGL = 0 
+ XL = 0 
+ XW = 0 
+ NGCON = 1 
+ IJTHSREV = 0.1 
+ IJTHSFWD = 0.1 
+ XJBVS = 1 
+ BVS = 10 
+ JSS = 0 
+ JSWS = 0 
+ JSWGS = 0 
+ JTSS = 0 
+ JTSSWS = 0 
+ JTSSWGS = 0 
+ JTWEFF = 0 
+ NJTS = 20 
+ NJTSSW = 20 
+ NJTSSWG = 20 
+ XTSS = 0.02 
+ XTSSWS = 0.02 
+ XTSSWGS = 0.02 
+ VTSS = 10 
+ VTSSWS = 10 
+ VTSSWGS = 10 
+ TNJTS = 0 
+ TNJTSSW = 0 
+ TNJTSSWG = 0 
+ CJS = 0.0005 
+ MJS = 0.5 
+ MJSWS = 0.33 
+ CJSWS = 5E-10 
+ CJSWGS = 5E-10 
+ MJSWGS = 0.33 
+ PBS = 1 
+ PBSWS = 1 
+ PBSWGS = 1 
+ IJTHDREV = 0.1 
+ IJTHDFWD = 0.1 
+ XJBVD = 1 
+ BVD = 10 
+ JSD = 0 
+ JSWD = 0 
+ JSWGD = 0 
+ JTSD = 0 
+ JTSSWD = 0 
+ JTSSWGD = 0 
+ NJTSD = 20 
+ NJTSSWD = 20 
+ NJTSSWGD = 20 
+ XTSD = 0.02 
+ XTSSWD = 0.02 
+ XTSSWGD = 0.02 
+ VTSD = 10 
+ VTSSWD = 10 
+ VTSSWGD = 10 
+ TNJTSD = 0 
+ TNJTSSWD = 0 
+ TNJTSSWGD = 0 
+ CJD = 0.0005 
+ MJD = 0.5 
+ MJSWD = 0.33 
+ CJSWD = 5E-10 
+ CJSWGD = 5E-10 
+ MJSWGD = 0.33 
+ PBD = 1 
+ PBSWD = 1 
+ PBSWGD = 1 
+ TNOM = 27 
+ UTE = -1.5 
+ UCSTE = -0.004775 
+ KT1 = -0.11 
+ KT1L = 0 
+ KT2 = 0.022 
+ UA1 = 1E-09 
+ UB1 = -1E-18 
+ UC1 = -0.056 
+ UD1 = 0 
+ AT = 33000 
+ PRT = 0 
+ NJS = 1 
+ NJD = 1 
+ XTIS = 3 
+ XTID = 3 
+ TPB = 0 
+ TPBSW = 0 
+ TPBSWG = 0 
+ TCJ = 0 
+ TCJSW = 0 
+ TCJSWG = 0 
+ TVOFF = 0 
+ TVFBSDOFF = 0 
+ TNFACTOR = 0 
+ TETA0 = 0 
+ TVOFFCV = 0 
+ SAREF = 0 
+ SBREF = 0 
+ WLOD = 2E-06 
+ KU0 = 4E-06 
+ KVSAT = 0.2 
+ TKU0 = 0 
+ LKU0 = 1E-06 
+ WKU0 = 1E-06 
+ PKU0 = 0 
+ LLODKU0 = 1.1 
+ WLODKU0 = 1.1 
+ KVTH0 = -2E-08 
+ LKVTH0 = 1.1E-06 
+ WKVTH0 = 1.1E-06 
+ PKVTH0 = 0 
+ LLODVTH = 1 
+ WLODVTH = 1 
+ STK2 = 0 
+ LODK2 = 1 
+ STETA0 = 0 
+ LODETA0 = 1 
+ WEB = 0 
+ WEC = 0 
+ KVTH0WE = 0 
+ K2WE = 0 
+ KU0WE = 0 
+ SCREF = 1E-06 
+ WL = 0 
+ WLN = 1 
+ WW = 0 
+ WWN = 1 
+ WWL = 0 
+ LL = 0 
+ LLN = 1 
+ LW = 0 
+ LWN = 1 
+ LWL = 0 
+ LLC = 0 
+ LWC = 0 
+ LWLC = 0 
+ WLC = 0 
+ WWC = 0 
+ WWLC = 0 
* CGDEXT0       = 1E-12
* CGSEXT0       = 1E-12
* CDSEXT0       = 1E-12
